
#======================================================================
# CRYSTAL DATA
#----------------------------------------------------------------------
data_VESTA_phase_1

_chemical_name_common                  'isocif-output'
_cell_length_a                         16.536633
_cell_length_b                         16.536633
_cell_length_c                         31.288200
_cell_angle_alpha                      90.000000
_cell_angle_beta                       90.000000
_cell_angle_gamma                      90.000000
_cell_volume                           8556.078024
_space_group_name_H-M_alt              'P 1'
_space_group_IT_number                 1

loop_
_space_group_symop_operation_xyz
   'x, y, z'

loop_
   _atom_site_label
   _atom_site_occupancy
   _atom_site_fract_x
   _atom_site_fract_y
   _atom_site_fract_z
   _atom_site_adp_type
   _atom_site_U_iso_or_equiv
   _atom_site_type_symbol
   Pb1        1.0     0.237495     0.884565     0.260293    Uiso  ? Pb
   Pb2        1.0     0.762505     0.115435     0.260293    Uiso  ? Pb
   Pb3        1.0     0.259565     0.362495     0.260293    Uiso  ? Pb
   Pb4        1.0     0.490435     0.887505     0.260293    Uiso  ? Pb
   Pb5        1.0     0.737495     0.384565     0.260293    Uiso  ? Pb
   Pb6        1.0     0.262505     0.615435     0.260293    Uiso  ? Pb
   Pb7        1.0     0.759565     0.862495     0.260293    Uiso  ? Pb
   Pb8        1.0     0.990435     0.387505     0.260293    Uiso  ? Pb
   Pb9        1.0     0.987495     0.134565     0.260293    Uiso  ? Pb
   Pb10       1.0     0.012505     0.865435     0.260293    Uiso  ? Pb
   Pb11       1.0     0.509565     0.112495     0.260293    Uiso  ? Pb
   Pb12       1.0     0.240435     0.137505     0.260293    Uiso  ? Pb
   Pb13       1.0     0.487495     0.634565     0.260293    Uiso  ? Pb
   Pb14       1.0     0.512505     0.365435     0.260293    Uiso  ? Pb
   Pb15       1.0     0.009565     0.612495     0.260293    Uiso  ? Pb
   Pb16       1.0     0.740435     0.637505     0.260293    Uiso  ? Pb
   Pb17       1.0     0.242243     0.884538     0.130147    Uiso  ? Pb
   Pb18       1.0     0.242243     0.884538     0.390440    Uiso  ? Pb
   Pb19       1.0     0.757757     0.115462     0.130147    Uiso  ? Pb
   Pb20       1.0     0.757757     0.115462     0.390440    Uiso  ? Pb
   Pb21       1.0     0.259538     0.367243     0.130147    Uiso  ? Pb
   Pb22       1.0     0.259538     0.367243     0.390440    Uiso  ? Pb
   Pb23       1.0     0.490462     0.882757     0.130147    Uiso  ? Pb
   Pb24       1.0     0.490462     0.882757     0.390440    Uiso  ? Pb
   Pb25       1.0     0.742243     0.384538     0.130147    Uiso  ? Pb
   Pb26       1.0     0.742243     0.384538     0.390440    Uiso  ? Pb
   Pb27       1.0     0.257757     0.615462     0.130147    Uiso  ? Pb
   Pb28       1.0     0.257757     0.615462     0.390440    Uiso  ? Pb
   Pb29       1.0     0.759538     0.867243     0.130147    Uiso  ? Pb
   Pb30       1.0     0.759538     0.867243     0.390440    Uiso  ? Pb
   Pb31       1.0     0.990462     0.382757     0.130147    Uiso  ? Pb
   Pb32       1.0     0.990462     0.382757     0.390440    Uiso  ? Pb
   Pb33       1.0     0.992243     0.134538     0.130147    Uiso  ? Pb
   Pb34       1.0     0.992243     0.134538     0.390440    Uiso  ? Pb
   Pb35       1.0     0.007757     0.865462     0.130147    Uiso  ? Pb
   Pb36       1.0     0.007757     0.865462     0.390440    Uiso  ? Pb
   Pb37       1.0     0.509538     0.117243     0.130147    Uiso  ? Pb
   Pb38       1.0     0.509538     0.117243     0.390440    Uiso  ? Pb
   Pb39       1.0     0.240462     0.132757     0.130147    Uiso  ? Pb
   Pb40       1.0     0.240462     0.132757     0.390440    Uiso  ? Pb
   Pb41       1.0     0.492243     0.634538     0.130147    Uiso  ? Pb
   Pb42       1.0     0.492243     0.634538     0.390440    Uiso  ? Pb
   Pb43       1.0     0.507757     0.365462     0.130147    Uiso  ? Pb
   Pb44       1.0     0.507757     0.365462     0.390440    Uiso  ? Pb
   Pb45       1.0     0.009538     0.617243     0.130147    Uiso  ? Pb
   Pb46       1.0     0.009538     0.617243     0.390440    Uiso  ? Pb
   Pb47       1.0     0.740462     0.632757     0.130147    Uiso  ? Pb
   Pb48       1.0     0.740462     0.632757     0.390440    Uiso  ? Pb
   Zr1        1.0     0.123462     0.001538     0.064982    Uiso  ? Zr
   Zr2        1.0     0.123462     0.001538     0.325275    Uiso  ? Zr
   Zr3        1.0     0.876538     0.998462     0.195311    Uiso  ? Zr
   Zr4        1.0     0.876538     0.998462     0.455604    Uiso  ? Zr
   Zr5        1.0     0.876538     0.998462     0.064982    Uiso  ? Zr
   Zr6        1.0     0.876538     0.998462     0.325275    Uiso  ? Zr
   Zr7        1.0     0.123462     0.001538     0.195311    Uiso  ? Zr
   Zr8        1.0     0.123462     0.001538     0.455604    Uiso  ? Zr
   Zr9        1.0     0.376538     0.248462     0.195311    Uiso  ? Zr
   Zr10       1.0     0.376538     0.248462     0.455604    Uiso  ? Zr
   Zr11       1.0     0.373462     0.001538     0.064982    Uiso  ? Zr
   Zr12       1.0     0.373462     0.001538     0.325275    Uiso  ? Zr
   Zr13       1.0     0.373462     0.001538     0.195311    Uiso  ? Zr
   Zr14       1.0     0.373462     0.001538     0.455604    Uiso  ? Zr
   Zr15       1.0     0.376538     0.248462     0.064982    Uiso  ? Zr
   Zr16       1.0     0.376538     0.248462     0.325275    Uiso  ? Zr
   Zr17       1.0     0.623462     0.501538     0.064982    Uiso  ? Zr
   Zr18       1.0     0.623462     0.501538     0.325275    Uiso  ? Zr
   Zr19       1.0     0.376538     0.498462     0.195311    Uiso  ? Zr
   Zr20       1.0     0.376538     0.498462     0.455604    Uiso  ? Zr
   Zr21       1.0     0.376538     0.498462     0.064982    Uiso  ? Zr
   Zr22       1.0     0.376538     0.498462     0.325275    Uiso  ? Zr
   Zr23       1.0     0.623462     0.501538     0.195311    Uiso  ? Zr
   Zr24       1.0     0.623462     0.501538     0.455604    Uiso  ? Zr
   Zr25       1.0     0.876538     0.748462     0.195311    Uiso  ? Zr
   Zr26       1.0     0.876538     0.748462     0.455604    Uiso  ? Zr
   Zr27       1.0     0.873462     0.501538     0.064982    Uiso  ? Zr
   Zr28       1.0     0.873462     0.501538     0.325275    Uiso  ? Zr
   Zr29       1.0     0.873462     0.501538     0.195311    Uiso  ? Zr
   Zr30       1.0     0.873462     0.501538     0.455604    Uiso  ? Zr
   Zr31       1.0     0.876538     0.748462     0.064982    Uiso  ? Zr
   Zr32       1.0     0.876538     0.748462     0.325275    Uiso  ? Zr
   Zr33       1.0     0.873462     0.251538     0.064982    Uiso  ? Zr
   Zr34       1.0     0.873462     0.251538     0.325275    Uiso  ? Zr
   Zr35       1.0     0.126538     0.748462     0.195311    Uiso  ? Zr
   Zr36       1.0     0.126538     0.748462     0.455604    Uiso  ? Zr
   Zr37       1.0     0.126538     0.748462     0.064982    Uiso  ? Zr
   Zr38       1.0     0.126538     0.748462     0.325275    Uiso  ? Zr
   Zr39       1.0     0.873462     0.251538     0.195311    Uiso  ? Zr
   Zr40       1.0     0.873462     0.251538     0.455604    Uiso  ? Zr
   Zr41       1.0     0.626538     0.998462     0.195311    Uiso  ? Zr
   Zr42       1.0     0.626538     0.998462     0.455604    Uiso  ? Zr
   Zr43       1.0     0.123462     0.251538     0.064982    Uiso  ? Zr
   Zr44       1.0     0.123462     0.251538     0.325275    Uiso  ? Zr
   Zr45       1.0     0.123462     0.251538     0.195311    Uiso  ? Zr
   Zr46       1.0     0.123462     0.251538     0.455604    Uiso  ? Zr
   Zr47       1.0     0.626538     0.998462     0.064982    Uiso  ? Zr
   Zr48       1.0     0.626538     0.998462     0.325275    Uiso  ? Zr
   Zr49       1.0     0.373462     0.751538     0.064982    Uiso  ? Zr
   Zr50       1.0     0.373462     0.751538     0.325275    Uiso  ? Zr
   Zr51       1.0     0.626538     0.248462     0.195311    Uiso  ? Zr
   Zr52       1.0     0.626538     0.248462     0.455604    Uiso  ? Zr
   Zr53       1.0     0.626538     0.248462     0.064982    Uiso  ? Zr
   Zr54       1.0     0.626538     0.248462     0.325275    Uiso  ? Zr
   Zr55       1.0     0.373462     0.751538     0.195311    Uiso  ? Zr
   Zr56       1.0     0.373462     0.751538     0.455604    Uiso  ? Zr
   Zr57       1.0     0.126538     0.498462     0.195311    Uiso  ? Zr
   Zr58       1.0     0.126538     0.498462     0.455604    Uiso  ? Zr
   Zr59       1.0     0.623462     0.751538     0.064982    Uiso  ? Zr
   Zr60       1.0     0.623462     0.751538     0.325275    Uiso  ? Zr
   Zr61       1.0     0.623462     0.751538     0.195311    Uiso  ? Zr
   Zr62       1.0     0.623462     0.751538     0.455604    Uiso  ? Zr
   Zr63       1.0     0.126538     0.498462     0.064982    Uiso  ? Zr
   Zr64       1.0     0.126538     0.498462     0.325275    Uiso  ? Zr
   O1         1.0     0.000000     0.000000     0.058535    Uiso  ? O
   O2         1.0     0.000000     0.000000     0.318828    Uiso  ? O
   O3         1.0     0.000000     0.000000     0.201758    Uiso  ? O
   O4         1.0     0.000000     0.000000     0.462051    Uiso  ? O
   O5         1.0     0.375000     0.125000     0.201758    Uiso  ? O
   O6         1.0     0.375000     0.125000     0.462051    Uiso  ? O
   O7         1.0     0.375000     0.125000     0.058535    Uiso  ? O
   O8         1.0     0.375000     0.125000     0.318828    Uiso  ? O
   O9         1.0     0.500000     0.500000     0.058535    Uiso  ? O
   O10        1.0     0.500000     0.500000     0.318828    Uiso  ? O
   O11        1.0     0.500000     0.500000     0.201758    Uiso  ? O
   O12        1.0     0.500000     0.500000     0.462051    Uiso  ? O
   O13        1.0     0.875000     0.625000     0.201758    Uiso  ? O
   O14        1.0     0.875000     0.625000     0.462051    Uiso  ? O
   O15        1.0     0.875000     0.625000     0.058535    Uiso  ? O
   O16        1.0     0.875000     0.625000     0.318828    Uiso  ? O
   O17        1.0     0.750000     0.250000     0.058535    Uiso  ? O
   O18        1.0     0.750000     0.250000     0.318828    Uiso  ? O
   O19        1.0     0.250000     0.750000     0.201758    Uiso  ? O
   O20        1.0     0.250000     0.750000     0.462051    Uiso  ? O
   O21        1.0     0.250000     0.750000     0.058535    Uiso  ? O
   O22        1.0     0.250000     0.750000     0.318828    Uiso  ? O
   O23        1.0     0.750000     0.250000     0.201758    Uiso  ? O
   O24        1.0     0.750000     0.250000     0.462051    Uiso  ? O
   O25        1.0     0.625000     0.875000     0.201758    Uiso  ? O
   O26        1.0     0.625000     0.875000     0.462051    Uiso  ? O
   O27        1.0     0.125000     0.375000     0.058535    Uiso  ? O
   O28        1.0     0.125000     0.375000     0.318828    Uiso  ? O
   O29        1.0     0.125000     0.375000     0.201758    Uiso  ? O
   O30        1.0     0.125000     0.375000     0.462051    Uiso  ? O
   O31        1.0     0.625000     0.875000     0.058535    Uiso  ? O
   O32        1.0     0.625000     0.875000     0.318828    Uiso  ? O
   O33        1.0     0.250000     0.250000     0.051265    Uiso  ? O
   O34        1.0     0.250000     0.250000     0.311558    Uiso  ? O
   O35        1.0     0.750000     0.750000     0.209028    Uiso  ? O
   O36        1.0     0.750000     0.750000     0.469321    Uiso  ? O
   O37        1.0     0.750000     0.750000     0.051265    Uiso  ? O
   O38        1.0     0.750000     0.750000     0.311558    Uiso  ? O
   O39        1.0     0.250000     0.250000     0.209028    Uiso  ? O
   O40        1.0     0.250000     0.250000     0.469321    Uiso  ? O
   O41        1.0     0.625000     0.375000     0.209028    Uiso  ? O
   O42        1.0     0.625000     0.375000     0.469321    Uiso  ? O
   O43        1.0     0.125000     0.875000     0.051265    Uiso  ? O
   O44        1.0     0.125000     0.875000     0.311558    Uiso  ? O
   O45        1.0     0.125000     0.875000     0.209028    Uiso  ? O
   O46        1.0     0.125000     0.875000     0.469321    Uiso  ? O
   O47        1.0     0.625000     0.375000     0.051265    Uiso  ? O
   O48        1.0     0.625000     0.375000     0.311558    Uiso  ? O
   O49        1.0     0.000000     0.500000     0.051265    Uiso  ? O
   O50        1.0     0.000000     0.500000     0.311558    Uiso  ? O
   O51        1.0     0.000000     0.500000     0.209028    Uiso  ? O
   O52        1.0     0.000000     0.500000     0.469321    Uiso  ? O
   O53        1.0     0.875000     0.125000     0.209028    Uiso  ? O
   O54        1.0     0.875000     0.125000     0.469321    Uiso  ? O
   O55        1.0     0.875000     0.125000     0.051265    Uiso  ? O
   O56        1.0     0.875000     0.125000     0.311558    Uiso  ? O
   O57        1.0     0.500000     0.000000     0.051265    Uiso  ? O
   O58        1.0     0.500000     0.000000     0.311558    Uiso  ? O
   O59        1.0     0.500000     0.000000     0.209028    Uiso  ? O
   O60        1.0     0.500000     0.000000     0.469321    Uiso  ? O
   O61        1.0     0.375000     0.625000     0.209028    Uiso  ? O
   O62        1.0     0.375000     0.625000     0.469321    Uiso  ? O
   O63        1.0     0.375000     0.625000     0.051265    Uiso  ? O
   O64        1.0     0.375000     0.625000     0.311558    Uiso  ? O
   O65        1.0     0.141542     0.122787     0.074259    Uiso  ? O
   O66        1.0     0.141542     0.122787     0.334552    Uiso  ? O
   O67        1.0     0.858458     0.877213     0.186034    Uiso  ? O
   O68        1.0     0.858458     0.877213     0.446327    Uiso  ? O
   O69        1.0     0.858458     0.877213     0.074259    Uiso  ? O
   O70        1.0     0.858458     0.877213     0.334552    Uiso  ? O
   O71        1.0     0.141542     0.122787     0.186034    Uiso  ? O
   O72        1.0     0.141542     0.122787     0.446327    Uiso  ? O
   O73        1.0     0.497787     0.266542     0.186034    Uiso  ? O
   O74        1.0     0.497787     0.266542     0.446327    Uiso  ? O
   O75        1.0     0.252213     0.983458     0.074259    Uiso  ? O
   O76        1.0     0.252213     0.983458     0.334552    Uiso  ? O
   O77        1.0     0.252213     0.983458     0.186034    Uiso  ? O
   O78        1.0     0.252213     0.983458     0.446327    Uiso  ? O
   O79        1.0     0.497787     0.266542     0.074259    Uiso  ? O
   O80        1.0     0.497787     0.266542     0.334552    Uiso  ? O
   O81        1.0     0.641542     0.622787     0.074259    Uiso  ? O
   O82        1.0     0.641542     0.622787     0.334552    Uiso  ? O
   O83        1.0     0.358458     0.377213     0.186034    Uiso  ? O
   O84        1.0     0.358458     0.377213     0.446327    Uiso  ? O
   O85        1.0     0.358458     0.377213     0.074259    Uiso  ? O
   O86        1.0     0.358458     0.377213     0.334552    Uiso  ? O
   O87        1.0     0.641542     0.622787     0.186034    Uiso  ? O
   O88        1.0     0.641542     0.622787     0.446327    Uiso  ? O
   O89        1.0     0.997787     0.766542     0.186034    Uiso  ? O
   O90        1.0     0.997787     0.766542     0.446327    Uiso  ? O
   O91        1.0     0.752213     0.483458     0.074259    Uiso  ? O
   O92        1.0     0.752213     0.483458     0.334552    Uiso  ? O
   O93        1.0     0.752213     0.483458     0.186034    Uiso  ? O
   O94        1.0     0.752213     0.483458     0.446327    Uiso  ? O
   O95        1.0     0.997787     0.766542     0.074259    Uiso  ? O
   O96        1.0     0.997787     0.766542     0.334552    Uiso  ? O
   O97        1.0     0.891542     0.372787     0.074259    Uiso  ? O
   O98        1.0     0.891542     0.372787     0.334552    Uiso  ? O
   O99        1.0     0.108458     0.627213     0.186034    Uiso  ? O
   O100       1.0     0.108458     0.627213     0.446327    Uiso  ? O
   O101       1.0     0.108458     0.627213     0.074259    Uiso  ? O
   O102       1.0     0.108458     0.627213     0.334552    Uiso  ? O
   O103       1.0     0.891542     0.372787     0.186034    Uiso  ? O
   O104       1.0     0.891542     0.372787     0.446327    Uiso  ? O
   O105       1.0     0.747787     0.016542     0.186034    Uiso  ? O
   O106       1.0     0.747787     0.016542     0.446327    Uiso  ? O
   O107       1.0     0.002213     0.233458     0.074259    Uiso  ? O
   O108       1.0     0.002213     0.233458     0.334552    Uiso  ? O
   O109       1.0     0.002213     0.233458     0.186034    Uiso  ? O
   O110       1.0     0.002213     0.233458     0.446327    Uiso  ? O
   O111       1.0     0.747787     0.016542     0.074259    Uiso  ? O
   O112       1.0     0.747787     0.016542     0.334552    Uiso  ? O
   O113       1.0     0.391542     0.872787     0.074259    Uiso  ? O
   O114       1.0     0.391542     0.872787     0.334552    Uiso  ? O
   O115       1.0     0.608458     0.127213     0.186034    Uiso  ? O
   O116       1.0     0.608458     0.127213     0.446327    Uiso  ? O
   O117       1.0     0.608458     0.127213     0.074259    Uiso  ? O
   O118       1.0     0.608458     0.127213     0.334552    Uiso  ? O
   O119       1.0     0.391542     0.872787     0.186034    Uiso  ? O
   O120       1.0     0.391542     0.872787     0.446327    Uiso  ? O
   O121       1.0     0.247787     0.516542     0.186034    Uiso  ? O
   O122       1.0     0.247787     0.516542     0.446327    Uiso  ? O
   O123       1.0     0.502213     0.733458     0.074259    Uiso  ? O
   O124       1.0     0.502213     0.733458     0.334552    Uiso  ? O
   O125       1.0     0.502213     0.733458     0.186034    Uiso  ? O
   O126       1.0     0.502213     0.733458     0.446327    Uiso  ? O
   O127       1.0     0.247787     0.516542     0.074259    Uiso  ? O
   O128       1.0     0.247787     0.516542     0.334552    Uiso  ? O
   O129       1.0     0.150200     0.010800     0.260293    Uiso  ? O
   O130       1.0     0.849800     0.989200     0.260293    Uiso  ? O
   O131       1.0     0.385800     0.275200     0.260293    Uiso  ? O
   O132       1.0     0.364200     0.974800     0.260293    Uiso  ? O
   O133       1.0     0.650200     0.510800     0.260293    Uiso  ? O
   O134       1.0     0.349800     0.489200     0.260293    Uiso  ? O
   O135       1.0     0.885800     0.775200     0.260293    Uiso  ? O
   O136       1.0     0.864200     0.474800     0.260293    Uiso  ? O
   O137       1.0     0.900200     0.260800     0.260293    Uiso  ? O
   O138       1.0     0.099800     0.739200     0.260293    Uiso  ? O
   O139       1.0     0.635800     0.025200     0.260293    Uiso  ? O
   O140       1.0     0.114200     0.224800     0.260293    Uiso  ? O
   O141       1.0     0.400200     0.760800     0.260293    Uiso  ? O
   O142       1.0     0.599800     0.239200     0.260293    Uiso  ? O
   O143       1.0     0.135800     0.525200     0.260293    Uiso  ? O
   O144       1.0     0.614200     0.724800     0.260293    Uiso  ? O
   O145       1.0     0.121602     0.968967     0.130147    Uiso  ? O
   O146       1.0     0.121602     0.968967     0.390440    Uiso  ? O
   O147       1.0     0.878398     0.031033     0.130147    Uiso  ? O
   O148       1.0     0.878398     0.031033     0.390440    Uiso  ? O
   O149       1.0     0.343967     0.246602     0.130147    Uiso  ? O
   O150       1.0     0.343967     0.246602     0.390440    Uiso  ? O
   O151       1.0     0.406033     0.003398     0.130147    Uiso  ? O
   O152       1.0     0.406033     0.003398     0.390440    Uiso  ? O
   O153       1.0     0.621602     0.468967     0.130147    Uiso  ? O
   O154       1.0     0.621602     0.468967     0.390440    Uiso  ? O
   O155       1.0     0.378398     0.531033     0.130147    Uiso  ? O
   O156       1.0     0.378398     0.531033     0.390440    Uiso  ? O
   O157       1.0     0.843967     0.746602     0.130147    Uiso  ? O
   O158       1.0     0.843967     0.746602     0.390440    Uiso  ? O
   O159       1.0     0.906033     0.503398     0.130147    Uiso  ? O
   O160       1.0     0.906033     0.503398     0.390440    Uiso  ? O
   O161       1.0     0.871602     0.218967     0.130147    Uiso  ? O
   O162       1.0     0.871602     0.218967     0.390440    Uiso  ? O
   O163       1.0     0.128398     0.781033     0.130147    Uiso  ? O
   O164       1.0     0.128398     0.781033     0.390440    Uiso  ? O
   O165       1.0     0.593967     0.996602     0.130147    Uiso  ? O
   O166       1.0     0.593967     0.996602     0.390440    Uiso  ? O
   O167       1.0     0.156033     0.253398     0.130147    Uiso  ? O
   O168       1.0     0.156033     0.253398     0.390440    Uiso  ? O
   O169       1.0     0.371602     0.718967     0.130147    Uiso  ? O
   O170       1.0     0.371602     0.718967     0.390440    Uiso  ? O
   O171       1.0     0.628398     0.281033     0.130147    Uiso  ? O
   O172       1.0     0.628398     0.281033     0.390440    Uiso  ? O
   O173       1.0     0.093967     0.496602     0.130147    Uiso  ? O
   O174       1.0     0.093967     0.496602     0.390440    Uiso  ? O
   O175       1.0     0.656033     0.753398     0.130147    Uiso  ? O
   O176       1.0     0.656033     0.753398     0.390440    Uiso  ? O
